Circuit: * C:\Users\andre\Desktop\Universita\PrimoAnno\SecondoSemestre\ProgettiAnalogici\OpAmpProject\Basic\Vout_Basic.asc

Model "pmos": Oxide thickness thinner than recommended for a level 1 MOSFET.
Instance "m:u1:6": Length shorter than recommended for a level 1 MOSFET.
Instance "m:u1:4": Length shorter than recommended for a level 1 MOSFET.
Instance "m:u1:4": Width narrower than recommended for a level 1 MOSFET.
Instance "m:u1:3": Length shorter than recommended for a level 1 MOSFET.
Instance "m:u1:3": Width narrower than recommended for a level 1 MOSFET.
Model "nmos": Oxide thickness thinner than recommended for a level 1 MOSFET.
Instance "m:u1:8": Length shorter than recommended for a level 1 MOSFET.
Instance "m:u1:8": Width narrower than recommended for a level 1 MOSFET.
Instance "m:u1:5": Length shorter than recommended for a level 1 MOSFET.
Instance "m:u1:5": Width narrower than recommended for a level 1 MOSFET.
Instance "m:u1:7": Length shorter than recommended for a level 1 MOSFET.
Instance "m:u1:7": Width narrower than recommended for a level 1 MOSFET.
Instance "m:u1:2": Length shorter than recommended for a level 1 MOSFET.
Instance "m:u1:2": Width narrower than recommended for a level 1 MOSFET.
Instance "m:u1:1": Length shorter than recommended for a level 1 MOSFET.
Instance "m:u1:1": Width narrower than recommended for a level 1 MOSFET.
Direct Newton iteration for .op point succeeded.

Date: Thu Aug 10 17:32:33 2023
Total elapsed time: 0.103 seconds.

tnom = 27
temp = 27
method = trap
totiter = 1180
traniter = 0
tranpoints = 0
accept = 0
rejected = 0
matrix size = 13
fillins = 6
solver = Normal
Matrix Compiler1: 1.33 KB object code size  0.7/0.3/[0.2]
Matrix Compiler2: 1.36 KB object code size  0.4/0.4/[0.3]

